*heading
example5
*node,nset=nall
1,0,0
2,36,0
3,-1.454545454545455,8
4,1.454545454545455,8
5,33.09090909090909,8
6,36,8
7,-2.545454545454545,14
8,2.545454545454545,14
9,30.90909090909091,14
10,36,14
11,-16,22
12,-10,22
13,-4,22
14,4,22
15,12,22
16,20,22
17,28,22
18,36,22
19,-10,25
20,-4,28
** ... 5 like lines cut
*element,type=t2d2,elset=elall
1,1,3
2,1,4
3,2,5
4,2,6
5,3,7
6,3,8 
8,4,8
9,5,9
10,5,10 
12,6,10
13,7,13 
15,8,13
16,8,14
17,9,17 
19,10,17
20,10,18
21,11,12
22,11,19
23,12,19
24,13,20
** ... 27 like lines cut
*solid section,elset=elall,material=steel
1
*material,name=steel
*elastic
30e6,.29
*step
*static
.2,1,1e-5,.2
*boundary
1,1,2,0
2,1,2,0
*cload
11,2,100e3
15,2,-300e3
25,1,-100e3
*end step