*heading
example6
*node,nset=nall
1,0,0
3,-1.454545454545455,8
4,1.454545454545455,8
5,33.09090909090909,8
6,36,8
7,-2.545454545454545,14
8,2.545454545454545,14
9,30.90909090909091,14
10,36,14
11,-16,22
12,-10,22
13,-4,22
14,4,22
15,12,22
16,20,22
17,28,22
18,36,22
19,-10,25
20,-4,28
21,4,28
** ... 4 like lines cut
*node,nset=n2
2,36,0
*transform,nset=n2
0.70710678118,0.70710678118,0,-0.70710678118,0.70710678118,0
*element,type=t2d2,elset=elall
1,1,3
2,1,4
3,2,5
4,2,6
5,3,7
6,3,8
**7,4,7
8,4,8
9,5,9
10,5,10
**11,6,9
12,6,10
13,7,13
14,13,8
**15,8,13
16,8,14
17,9,17
18,17,10
**19,10,17
19,18,17
20,10,18
21,11,12
22,11,19
23,12,19
24,13,20
25,12,13
26,19,20
**27,12,20
27,13,21
28,13,19
29,13,14
30,20,21
31,14,21
32,15,22
33,14,15
34,21,22
**35,14,22
36,15,21
37,15,16
38,22,23
39,15,23
**40,16,22
41,16,23
42,17,24
43,16,17
44,23,24
**45,16,24
46,17,23
47,18,25
48,24,25
49,17,25
**50,18,24
51,3,4
52,5,6
53,7,8
54,9,10
*solid section,elset=elall,material=steel
1
*material,name=steel
*elastic
30e6,.29
*step
*static
.2,1,1e-5,.2
*boundary
1,1,2,0
2,2,2,0
25,1,2,0
*cload
15,2,-1000e3
11,2,-200e3
*end step